Version 4.1
SHEET 1 1388 900
WIRE 288 144 48 144
WIRE 48 176 48 144
WIRE 288 176 288 144
WIRE 288 176 160 176
WIRE 400 176 288 176
WIRE 160 240 160 176
WIRE 400 240 400 176
WIRE 48 272 48 256
WIRE 400 416 400 320
WIRE 400 432 400 416
WIRE 544 432 400 432
WIRE 704 432 608 432
WIRE 400 480 400 432
WIRE -144 528 -160 528
WIRE -32 528 -144 528
WIRE 160 528 160 320
WIRE 160 528 32 528
WIRE 320 528 160 528
WIRE 336 528 320 528
WIRE 704 576 704 432
WIRE 400 592 400 576
WIRE 704 592 704 576
WIRE -160 624 -160 528
WIRE 400 624 400 592
WIRE 160 656 160 528
WIRE 400 736 400 704
WIRE 560 736 400 736
WIRE 400 752 400 736
WIRE 560 768 560 736
WIRE -160 864 -160 704
WIRE 160 864 160 736
WIRE 160 864 -160 864
WIRE 400 864 400 832
WIRE 400 864 160 864
WIRE 560 864 560 832
WIRE 560 864 400 864
WIRE 704 864 704 672
WIRE 704 864 560 864
WIRE 400 880 400 864
FLAG 48 272 0
FLAG 320 528 B
FLAG 400 416 C
FLAG 400 592 E
FLAG -144 528 in
FLAG 704 576 out
FLAG 400 880 0
SYMBOL res 144 224 R0
SYMATTR InstName Rb1
SYMATTR Value 82k
SYMBOL res 384 224 R0
SYMATTR InstName Rc
SYMATTR Value 2k
SYMBOL res 144 640 R0
SYMATTR InstName Rb2
SYMATTR Value 15k
SYMBOL npn 336 480 R0
SYMATTR InstName Q1
SYMATTR Value 2N2222
SYMBOL voltage 48 160 R0
WINDOW 123 0 0 Left 0
WINDOW 39 0 0 Left 0
SYMATTR InstName Vcc
SYMATTR Value 15
SYMBOL voltage -160 608 R0
WINDOW 123 24 124 Left 2
WINDOW 39 24 152 Left 2
SYMATTR Value2 AC 1
SYMATTR SpiceLine Rser=50
SYMATTR InstName Vin
SYMATTR Value SINE(0 20m 1k)
SYMBOL res 688 576 R0
SYMATTR InstName Rl
SYMATTR Value 1k
SYMBOL cap 32 512 R90
WINDOW 0 0 32 VBottom 2
WINDOW 3 32 32 VTop 2
SYMATTR InstName Cin
SYMATTR Value 22µ
SYMBOL cap 608 416 R90
WINDOW 0 0 32 VBottom 2
WINDOW 3 32 32 VTop 2
SYMATTR InstName Cout
SYMATTR Value 15µ
SYMBOL cap 544 768 R0
SYMATTR InstName Ce
SYMATTR Value 460µ
SYMBOL res 384 608 R0
SYMATTR InstName Re1
SYMATTR Value 36
SYMBOL res 384 736 R0
SYMATTR InstName Re2
SYMATTR Value 470
TEXT -112 288 Left 2 ;.op
TEXT -112 328 Left 2 ;.tran 3m
TEXT -112 360 Left 2 !.ac dec 100 1 100Meg
